/*--------------------------------*- C++ -*----------------------------------*\
| =========                 |                                                 |
| \\      /  F ield         | OpenFOAM: The Open Source CFD Toolbox           |
|  \\    /   O peration     | Version:  v1806                                 |
|   \\  /    A nd           | Web:      www.OpenFOAM.com                      |
|    \\/     M anipulation  |                                                 |
\*---------------------------------------------------------------------------*/
FoamFile
{
    version     2.0;
    format      ascii;
    class       volScalarField;
    location    "0";
    object      k;
}
// * * * * * * * * * * * * * * * * * * * * * * * * * * * * * * * * * * * * * //

dimensions      [0 2 -2 0 0 0 0];

internalField   uniform 0.1;

boundaryField
{
    bottom
    {
        type            kqRWallFunction;
        value           uniform 0.1;
    }

    interphase
    {
        type            kqRWallFunction;
        value           uniform 0.1;
    }

    tank_wall
    {
        type            kqRWallFunction;
        value           uniform 0.1;
    }

    wedge0
    {
        type            wedge;
    }

    wedge1
    {
        type            wedge;
    }

}


// ************************************************************************* //
